*NODE, NSET=NALL
1, 0.000000, 0.000000, 0.000000
2, 6.250000, 0.000000, 0.000000
3, 12.500000, 0.000000, 0.000000
4, 18.750000, 0.000000, 0.000000
5, 25.000000, 0.000000, 0.000000
6, 31.250000, 0.000000, 0.000000
7, 37.500000, 0.000000, 0.000000
8, 43.750000, 0.000000, 0.000000
9, 50.000000, 0.000000, 0.000000
10, 56.250000, 0.000000, 0.000000
11, 62.500000, 0.000000, 0.000000
12, 68.750000, 0.000000, 0.000000
13, 75.000000, 0.000000, 0.000000
14, 81.250000, 0.000000, 0.000000
15, 87.500000, 0.000000, 0.000000
16, 93.750000, 0.000000, 0.000000
17, 100.000000, 0.000000, 0.000000
18, 106.250000, 0.000000, 0.000000
19, 112.500000, 0.000000, 0.000000
20, 118.750000, 0.000000, 0.000000
** ... 880 like lines cut
*ELEMENT, TYPE=C3D8, ELSET=EALL
1, 1, 2, 27, 26, 151, 152, 177, 176
2, 2, 3, 28, 27, 152, 153, 178, 177
3, 3, 4, 29, 28, 153, 154, 179, 178
4, 4, 5, 30, 29, 154, 155, 180, 179
5, 5, 6, 31, 30, 155, 156, 181, 180
6, 6, 7, 32, 31, 156, 157, 182, 181
7, 7, 8, 33, 32, 157, 158, 183, 182
8, 8, 9, 34, 33, 158, 159, 184, 183
9, 9, 10, 35, 34, 159, 160, 185, 184
10, 10, 11, 36, 35, 160, 161, 186, 185
11, 11, 12, 37, 36, 161, 162, 187, 186
12, 12, 13, 38, 37, 162, 163, 188, 187
13, 13, 14, 39, 38, 163, 164, 189, 188
14, 14, 15, 40, 39, 164, 165, 190, 189
15, 15, 16, 41, 40, 165, 166, 191, 190
16, 16, 17, 42, 41, 166, 167, 192, 191
17, 17, 18, 43, 42, 167, 168, 193, 192
18, 18, 19, 44, 43, 168, 169, 194, 193
19, 19, 20, 45, 44, 169, 170, 195, 194
20, 20, 21, 46, 45, 170, 171, 196, 195
** ... 580 like lines cut
*NSET, NSET=FIXED
1, 26, 51, 76, 101, 126, 151, 176
201, 226, 251, 276, 301, 326, 351, 376
401, 426, 451, 476, 501, 526, 551, 576
601, 626, 651, 676, 701, 726, 751, 776
801, 826, 851, 876
*NSET, NSET=TIP
25, 50, 75, 100, 125, 150, 175, 200
225, 250, 275, 300, 325, 350, 375, 400
425, 450, 475, 500, 525, 550, 575, 600
625, 650, 675, 700, 725, 750, 775, 800
825, 850, 875, 900
*MATERIAL, NAME=STEEL
*ELASTIC
210000.0, 0.3
*DENSITY
7.85E-9
*SOLID SECTION, ELSET=EALL, MATERIAL=STEEL
*BOUNDARY
FIXED, 1, 3
*STEP
*STATIC
*CLOAD
TIP, 3, -1.666667
*NODE FILE
U
*EL FILE
S, E
*END STEP
