** beam3: a single B32, written by tools/generate_fixtures.py
*NODE, NSET=NALL
1, 0.000000, 0.000000, 0.000000
2, 5.000000, 0.000000, 0.000000
3, 2.500000, 0.000000, 0.000000
*ELEMENT, TYPE=B32, ELSET=EALL
1, 1, 2, 3
*MATERIAL, NAME=STEEL
*ELASTIC
210000.0, 0.3
*BEAM SECTION, ELSET=EALL, MATERIAL=STEEL, SECTION=RECT
0.1, 0.1
0.,0.,1.
*BOUNDARY
1, 1, 3, 0.0
*STEP
*STATIC
*CLOAD
2, 3, 100.0
*NODE FILE
U
*EL FILE
S, E
*END STEP
