** hex20: a single C3D20, written by tools/generate_fixtures.py
*NODE, NSET=NALL
1, 0.000000, 0.000000, 0.000000
2, 2.000000, 0.000000, 0.000000
3, 2.000000, 3.000000, 0.000000
4, 0.000000, 3.000000, 0.000000
5, 0.000000, 0.000000, 5.000000
6, 2.000000, 0.000000, 5.000000
7, 2.000000, 3.000000, 5.000000
8, 0.000000, 3.000000, 5.000000
9, 1.000000, 0.000000, 0.000000
10, 2.000000, 1.500000, 0.000000
11, 1.000000, 3.000000, 0.000000
12, 0.000000, 1.500000, 0.000000
13, 1.000000, 0.000000, 5.000000
14, 2.000000, 1.500000, 5.000000
15, 1.000000, 3.000000, 5.000000
16, 0.000000, 1.500000, 5.000000
17, 0.000000, 0.000000, 2.500000
18, 2.000000, 0.000000, 2.500000
19, 2.000000, 3.000000, 2.500000
20, 0.000000, 3.000000, 2.500000
*ELEMENT, TYPE=C3D20, ELSET=EALL
1, 1, 2, 3, 4, 5, 6, 7, 8, 9, 10, 11, 12, 13, 14, 15
16, 17, 18, 19, 20
*MATERIAL, NAME=STEEL
*ELASTIC
210000.0, 0.3
*SOLID SECTION, ELSET=EALL, MATERIAL=STEEL
*BOUNDARY
1, 1, 3, 0.0
2, 1, 3, 0.0
3, 1, 3, 0.0
4, 1, 3, 0.0
9, 1, 3, 0.0
10, 1, 3, 0.0
11, 1, 3, 0.0
12, 1, 3, 0.0
*STEP
*STATIC
*CLOAD
5, 3, 100.0
6, 3, 100.0
7, 3, 100.0
8, 3, 100.0
*NODE FILE, DOUBLE
U
*EL FILE, DOUBLE
S, E
*END STEP
