** hex8: a single C3D8, written by tools/generate_fixtures.py
*NODE, NSET=NALL
1, 0.000000, 0.000000, 0.000000
2, 2.000000, 0.000000, 0.000000
3, 2.000000, 3.000000, 0.000000
4, 0.000000, 3.000000, 0.000000
5, 0.000000, 0.000000, 5.000000
6, 2.000000, 0.000000, 5.000000
7, 2.000000, 3.000000, 5.000000
8, 0.000000, 3.000000, 5.000000
*ELEMENT, TYPE=C3D8, ELSET=EALL
1, 1, 2, 3, 4, 5, 6, 7, 8
*MATERIAL, NAME=STEEL
*ELASTIC
210000.0, 0.3
*SOLID SECTION, ELSET=EALL, MATERIAL=STEEL
*BOUNDARY
1, 1, 3, 0.0
2, 1, 3, 0.0
3, 1, 3, 0.0
4, 1, 3, 0.0
*STEP
*STATIC
*CLOAD
5, 3, 100.0
6, 3, 100.0
7, 3, 100.0
8, 3, 100.0
*NODE FILE
U
*EL FILE
S, E
*END STEP
*STEP
*STATIC
*CLOAD
5, 3, 200.0
6, 3, 200.0
7, 3, 200.0
8, 3, 200.0
*NODE FILE
U
*EL FILE
S, E
*END STEP
*STEP
*STATIC
*CLOAD
5, 3, 300.0
6, 3, 300.0
7, 3, 300.0
8, 3, 300.0
*NODE FILE
U
*EL FILE
S, E
*END STEP
