** quad4: a single S4, written by tools/generate_fixtures.py
*NODE, NSET=NALL
1, 0.000000, 0.000000, 0.000000
2, 2.000000, 0.000000, 0.000000
3, 2.000000, 3.000000, 0.000000
4, 0.000000, 3.000000, 0.000000
*ELEMENT, TYPE=S4, ELSET=EALL
1, 1, 2, 3, 4
*MATERIAL, NAME=STEEL
*ELASTIC
210000.0, 0.3
*SHELL SECTION, ELSET=EALL, MATERIAL=STEEL
0.1
*BOUNDARY
1, 1, 3, 0.0
4, 1, 3, 0.0
*STEP
*STATIC
*CLOAD
2, 3, 100.0
3, 3, 100.0
*NODE FILE
U
*EL FILE
S, E
*END STEP
