** tet10: a single C3D10, written by tools/generate_fixtures.py
*NODE, NSET=NALL
1, 0.000000, 0.000000, 0.000000
2, 2.000000, 0.000000, 0.000000
3, 0.000000, 3.000000, 0.000000
4, 0.000000, 0.000000, 5.000000
5, 1.000000, 0.000000, 0.000000
6, 1.000000, 1.500000, 0.000000
7, 0.000000, 1.500000, 0.000000
8, 0.000000, 0.000000, 2.500000
9, 1.000000, 0.000000, 2.500000
10, 0.000000, 1.500000, 2.500000
*ELEMENT, TYPE=C3D10, ELSET=EALL
1, 1, 2, 3, 4, 5, 6, 7, 8, 9, 10
*MATERIAL, NAME=STEEL
*ELASTIC
210000.0, 0.3
*SOLID SECTION, ELSET=EALL, MATERIAL=STEEL
*BOUNDARY
1, 1, 3, 0.0
2, 1, 3, 0.0
3, 1, 3, 0.0
5, 1, 3, 0.0
6, 1, 3, 0.0
7, 1, 3, 0.0
*STEP
*STATIC
*CLOAD
4, 3, 100.0
*NODE FILE
U
*EL FILE
S, E
*END STEP
