** tet4: a single C3D4, written by tools/generate_fixtures.py
*NODE, NSET=NALL
1, 0.000000, 0.000000, 0.000000
2, 2.000000, 0.000000, 0.000000
3, 0.000000, 3.000000, 0.000000
4, 0.000000, 0.000000, 5.000000
*ELEMENT, TYPE=C3D4, ELSET=EALL
1, 1, 2, 3, 4
*MATERIAL, NAME=STEEL
*ELASTIC
210000.0, 0.3
*SOLID SECTION, ELSET=EALL, MATERIAL=STEEL
*BOUNDARY
1, 1, 3, 0.0
2, 1, 3, 0.0
3, 1, 3, 0.0
*STEP
*STATIC
*CLOAD
4, 3, 100.0
*NODE FILE, DOUBLE
U
*EL FILE, DOUBLE
S, E
*END STEP
*STEP
*STATIC
*CLOAD
4, 3, 200.0
*NODE FILE, DOUBLE
U
*EL FILE, DOUBLE
S, E
*END STEP
*STEP
*STATIC
*CLOAD
4, 3, 300.0
*NODE FILE, DOUBLE
U
*EL FILE, DOUBLE
S, E
*END STEP
