** tri3: a single S3, written by tools/generate_fixtures.py
*NODE, NSET=NALL
1, 0.000000, 0.000000, 0.000000
2, 2.000000, 0.000000, 0.000000
3, 0.000000, 3.000000, 0.000000
*ELEMENT, TYPE=S3, ELSET=EALL
1, 1, 2, 3
*MATERIAL, NAME=STEEL
*ELASTIC
210000.0, 0.3
*SHELL SECTION, ELSET=EALL, MATERIAL=STEEL
0.1
*BOUNDARY
1, 1, 3, 0.0
3, 1, 3, 0.0
*STEP
*STATIC
*CLOAD
2, 3, 100.0
*NODE FILE, DOUBLE
U
*EL FILE, DOUBLE
S, E
*END STEP
