** tri6: a single S6, written by tools/generate_fixtures.py
*NODE, NSET=NALL
1, 0.000000, 0.000000, 0.000000
2, 2.000000, 0.000000, 0.000000
3, 0.000000, 3.000000, 0.000000
4, 1.000000, 0.000000, 0.000000
5, 1.000000, 1.500000, 0.000000
6, 0.000000, 1.500000, 0.000000
*ELEMENT, TYPE=S6, ELSET=EALL
1, 1, 2, 3, 4, 5, 6
*MATERIAL, NAME=STEEL
*ELASTIC
210000.0, 0.3
*SHELL SECTION, ELSET=EALL, MATERIAL=STEEL
0.1
*BOUNDARY
1, 1, 3, 0.0
3, 1, 3, 0.0
6, 1, 3, 0.0
*STEP
*STATIC
*CLOAD
2, 3, 100.0
*NODE FILE
U
*EL FILE
S, E
*END STEP
